43
blindII
C          3.90540      3.18010       12.79700
C          2.84570       4.04350       13.03160
C          2.40810       4.29950       14.31660
C          3.00370       3.68880       15.37920
C          4.03270       2.81410       15.16760
C          4.47520       2.55810       13.89620
C          4.42580       2.91580       11.40370
H          2.45150       4.47820       12.24800
H          1.69620       4.89460       14.42210
H          4.43600       2.35440       15.95310
H          5.18960       1.95010       13.76600
H          4.18890       3.61900       10.70250
H          5.46840       2.96140       11.28890
C          4.53150       1.31460        9.46070
C          5.59120       0.45110        9.22600
C          6.02880       0.19510        7.94110
C          5.43320       0.80580        6.87840
C          4.40420       1.68050        7.09010
C          3.96170       1.93650        8.36150
C          4.01110       1.57880       10.85390
H          5.98550       0.01640       10.00960
H          6.74080      -0.40000        7.83550
H          3.24740       2.54450        8.49170
H          4.24800       0.87570       11.55510
H          2.96850       1.53320       10.96880
H         -1.29480       4.94050       19.46880
C          1.76060       4.37760       17.42400
C          0.60900       3.61240       17.23430
H          0.60100       2.95240       16.57940
C         -0.50720       3.81850       17.99580
H         -1.26310       3.29500       17.85400
C         -0.52570       4.78980       18.96890
C          0.59820       5.52970       19.19080
H          0.58920       6.17590       19.86020
C          1.75490       5.34680       18.44850
C          2.96140       6.12660       18.76510
N          2.89050       4.17110       16.68860
O          2.82660       6.95090       19.79180
O          4.01330       6.03700       18.16740
H          3.45220       4.61790       17.12960
H          3.72290       7.45870       19.90350
Cl         3.69130       2.49330        5.70130
Cl         6.00140       0.52290        5.23680